Guam and CNMI                            ! 32 CHARACTER ALPHANUMERIC RUN DESCRIPTION
Tides Only                               ! 24 CHARACTER ALPHANUMERIC RUN IDENTIFICATION
1,20.0,1,10,30.0                         ! NFOVER - NONFATAL ERROR OVERRIDE OPTION
1                                        ! NABOUT - ABREVIATED OUTPUT OPTION PARAMETER
1                                        ! NSCREEN - OUTPUT TO UNIT 6 PARAMETER
0                                        ! IHOT - HOT START OPTION PARAMETER
2                                        ! ICS - COORDINATE SYSTEM OPTION PARAMETER
0                                        ! IM - MODEL RUN TYPE: 0,10,20,30 = 2DDI, 1,11,21,31 = 3D(VS), 2 = 3D(DSS)
1                                        ! NOLIBF - NONLINEAR BOTTOM FRICTION OPTION
0                                        ! NOLIFA - OPTION TO INCLUDE FINITE AMPLITUDE TERMS
0                                        ! NOLICA - OPTION TO INCLUDE CONVECTIVE ACCELERATION TERMS
0                                        ! NOLICAT - OPTION TO CONSIDER TIME DERIVATIVE OF CONV ACC TERMS
4                                        ! NWP - Number of nodal attributes.
elemental_slope_limiter
mannings_n_at_sea_floor
sea_surface_height_above_geoid
primitive_weighting_in_continuity_equation
1                                        ! NCOR - VARIABLE CORIOLIS IN SPACE OPTION PARAMETER
1                                        ! NTIP - TIDAL POTENTIAL OPTION PARAMETER
0                                        ! NWS - WIND STRESS AND BAROMETRIC PRESSURE OPTION PARAMETER
1                                        ! NRAMP - RAMP FUNCTION OPTION
9.80665                                  ! G - ACCELERATION DUE TO GRAVITY - DETERMINES UNITS
-3.0                                     ! TAU0 - WEIGHTING FACTOR IN GWCE
1.00000                                  ! DT - TIME STEP (IN SECONDS)
0.00000                                  ! STATIM - STARTING SIMULATION TIME IN DAYS
0.00000                                  ! REFTIME - REFERENCE TIME (IN DAYS) FOR NODAL FACTORS AND EQUILIBRIUM ARGS
90.00000                                 ! RNDAY - TOTAL LENGTH OF SIMULATION (IN DAYS)
20.00000                                 ! DRAMP - DURATION OF RAMP FUNCTION (IN DAYS)
0.350000 0.300000 0.350000               ! TIME WEIGHTING FACTORS FOR THE GWCE EQUATION
0.10 0 0 0.01                            ! H0, NODEDRYMIN, NODEWETMIN, VELMIN - MINIMUM WATER DEPTH AND DRYING/WETTING OPTIONS
145.27 14.25                             ! SLAM0, SFEA0 - LONGITUDE AND LATITUDE ON WHICH THE CPP COORDINATE PROJECTION IS CENTERED
0.002500 1.0 10.0 1.333333               ! FFACTORMIN, HBREAK, FTHETA, FGAMMA - BOTTOM FRICTION OPTIONS
5.000000                                 ! EVM - SPATIALLY CONSTANT HORIZONTAL EDDY VISCOSITY FOR THE MOMENTUM EQUATIONS
0.0                                      ! CORI - CONSTANT CORIOLIS COEFFICIENT
8                                        ! NTIF - NUMBER OF TIDAL POTENTIAL CONSTITUENTS
K1                                       ! TIPOTAG - NAME OF TIDAL POTENTIAL CONSTITUENT
0.14156500 0.000072921158358 0.736 1.000 0.000   ! TPK, AMIGT, ETRF, FFT, FACET - CONSTITUENT PROPERTIES
K2                                       ! TIPOTAG - NAME OF TIDAL POTENTIAL CONSTITUENT
0.03070400 0.000145842317201 0.693 1.000 0.000   ! TPK, AMIGT, ETRF, FFT, FACET - CONSTITUENT PROPERTIES
M2                                       ! TIPOTAG - NAME OF TIDAL POTENTIAL CONSTITUENT
0.24233400 0.000140518902509 0.693 1.000 0.000   ! TPK, AMIGT, ETRF, FFT, FACET - CONSTITUENT PROPERTIES
N2                                       ! TIPOTAG - NAME OF TIDAL POTENTIAL CONSTITUENT
0.04639800 0.000137879699487 0.693 1.000 0.000    ! TPK, AMIGT, ETRF, FFT, FACET - CONSTITUENT PROPERTIES
O1                                       ! TIPOTAG - NAME OF TIDAL POTENTIAL CONSTITUENT
0.10051400 0.000067597744151 0.695 1.000 0.000   ! TPK, AMIGT, ETRF, FFT, FACET - CONSTITUENT PROPERTIES
P1                                       ! TIPOTAG - NAME OF TIDAL POTENTIAL CONSTITUENT
0.04683400 0.000072522945975 0.706 1.000 0.000   ! TPK, AMIGT, ETRF, FFT, FACET - CONSTITUENT PROPERTIES
Q1                                       ! TIPOTAG - NAME OF TIDAL POTENTIAL CONSTITUENT
0.01925600 0.000064958541129 0.695 1.000 0.000   ! TPK, AMIGT, ETRF, FFT, FACET - CONSTITUENT PROPERTIES
S2                                       ! TIPOTAG - NAME OF TIDAL POTENTIAL CONSTITUENT
0.11284100 0.000145444104333 0.693 1.000 0.000     ! TPK, AMIGT, ETRF, FFT, FACET - CONSTITUENT PROPERTIES
8                                        ! NBFR - NUMBER OF PERIODIC FORCING FREQUENCIES ON ELEVATION SPECIFIED BOUNDARIES
K1                                       ! BOUNTAG - FORCING CONSTITUENT NAME
0.000072921158358 1.000 0.000
K2                                       ! BOUNTAG - FORCING CONSTITUENT NAME
0.000145842317201 1.000 0.000
M2                                       ! BOUNTAG - FORCING CONSTITUENT NAME
0.000140518902509 1.000 0.000
N2                                       ! BOUNTAG - FORCING CONSTITUENT NAME
0.000137879699487 1.000 0.000
O1                                       ! BOUNTAG - FORCING CONSTITUENT NAME
0.000067597744151 1.000 0.000
P1                                       ! BOUNTAG - FORCING CONSTITUENT NAME
0.000072522945975 1.000 0.000
Q1                                       ! BOUNTAG - FORCING CONSTITUENT NAME
0.000064958541129 1.000 0.000
S2                                       ! BOUNTAG - FORCING CONSTITUENT NAME
0.000145444104333 1.000 0.000
K1                                       ! EALPHA - FORCING CONSTITUENT NAME AGAIN
0.1520	59.0197
0.1519	59.0107
0.1518	59.0033
0.1517	59.0005
0.1517	59.0011
0.1516	59.0048
0.1516	59.0123
0.1515	59.0231
0.1515	59.0378
0.1515	59.0613
0.1514	59.0815
0.1514	59.1020
0.1514	59.1233
0.1514	59.1467
0.1514	59.1686
0.1514	59.1902
0.1514	59.2132
0.1514	59.2339
0.1514	59.2586
0.1514	59.2814
0.1514	59.3091
0.1514	59.3326
0.1514	59.3574
0.1514	59.3804
0.1514	59.4031
0.1515	59.4267
0.1515	59.4518
0.1515	59.4772
0.1515	59.5016
0.1516	59.5267
0.1516	59.5525
0.1516	59.5798
0.1517	59.6108
0.1517	59.6444
0.1518	59.6805
0.1518	59.7125
0.1519	59.7397
0.1519	59.7682
0.1520	59.7960
0.1520	59.8230
0.1521	59.8493
0.1522	59.8760
0.1522	59.9001
0.1523	59.9275
0.1524	59.9587
0.1524	59.9933
0.1525	60.0375
0.1526	60.0795
0.1527	60.1182
0.1528	60.1522
0.1529	60.1861
0.1530	60.2201
0.1531	60.2510
0.1532	60.2851
0.1533	60.3159
0.1534	60.3453
0.1535	60.3740
0.1536	60.4096
0.1537	60.4343
0.1538	60.4656
0.1540	60.5172
0.1541	60.5506
0.1543	60.5799
0.1544	60.6135
0.1545	60.6461
0.1547	60.6786
0.1548	60.7113
0.1550	60.7437
0.1551	60.7784
0.1553	60.8140
0.1555	60.8471
0.1557	60.8863
0.1558	60.9202
0.1560	60.9564
0.1562	60.9946
0.1564	61.0294
0.1566	61.0662
0.1568	61.1045
0.1570	61.1431
0.1572	61.1804
0.1575	61.2182
0.1577	61.2565
0.1579	61.2925
0.1581	61.3300
0.1584	61.3655
0.1586	61.4032
0.1588	61.4373
0.1590	61.4697
0.1592	61.4997
0.1594	61.5246
0.1596	61.5501
0.1598	61.5799
0.1600	61.6090
0.1602	61.6379
0.1604	61.6654
0.1607	61.6961
0.1609	61.7317
0.1612	61.7641
0.1614	61.7951
0.1617	61.8286
0.1619	61.8587
0.1622	61.8916
0.1625	61.9246
0.1627	61.9533
0.1630	61.9854
0.1632	62.0151
0.1635	62.0538
0.1638	62.0874
0.1640	62.1166
0.1643	62.1454
0.1646	62.1763
0.1648	62.2088
0.1651	62.2402
0.1654	62.2708
0.1656	62.2997
0.1658	62.3271
0.1660	62.3511
0.1663	62.3787
0.1665	62.4036
0.1667	62.4298
0.1669	62.4569
0.1672	62.4836
0.1674	62.5102
0.1676	62.5364
0.1678	62.5616
0.1680	62.5867
0.1683	62.6152
0.1685	62.6453
0.1688	62.6744
0.1690	62.7067
0.1693	62.7370
0.1695	62.7667
0.1698	62.7997
0.1700	62.8290
0.1703	62.8636
0.1706	62.8965
0.1709	62.9375
0.1712	62.9743
0.1715	63.0158
0.1717	63.0540
0.1720	63.0895
0.1723	63.1362
0.1726	63.1697
0.1728	63.2026
0.1730	63.2351
0.1732	63.2687
0.1735	63.3029
0.1737	63.3334
0.1739	63.3653
0.1741	63.3965
0.1743	63.4327
0.1746	63.4690
0.1748	63.5078
0.1750	63.5477
0.1753	63.5850
0.1755	63.6272
0.1758	63.6665
0.1760	63.7060
0.1762	63.7445
0.1764	63.7792
0.1766	63.8137
0.1768	63.8444
0.1770	63.8795
0.1772	63.9156
0.1773	63.9519
0.1775	63.9876
0.1777	64.0220
0.1779	64.0579
0.1781	64.0944
0.1782	64.1324
0.1784	64.1705
0.1786	64.2112
0.1788	64.2539
0.1789	64.2886
0.1791	64.3355
0.1792	64.3810
0.1794	64.4315
0.1796	64.5038
0.1798	64.5642
0.1799	64.6138
0.1800	64.6516
0.1801	64.6903
0.1803	64.7311
0.1804	64.7756
0.1805	64.8282
0.1807	64.8983
0.1808	64.9677
0.1810	65.0524
0.1811	65.1257
0.1812	65.1920
0.1814	65.2749
0.1814	65.3171
0.1815	65.3626
0.1816	65.4060
0.1816	65.4483
0.1817	65.4873
0.1817	65.5255
0.1817	65.5548
0.1818	65.5850
0.1818	65.6150
0.1818	65.6437
0.1818	65.6744
0.1818	65.7037
0.1818	65.7323
0.1818	65.7732
0.1818	65.8082
0.1818	65.8622
0.1818	65.8984
0.1818	65.9310
0.1818	65.9676
0.1818	66.0104
0.1817	66.0444
0.1817	66.0760
0.1817	66.1089
0.1816	66.1467
0.1816	66.1827
0.1815	66.2140
0.1815	66.2453
0.1814	66.2776
0.1814	66.3151
0.1813	66.3524
0.1812	66.3957
0.1812	66.4266
0.1811	66.4571
0.1811	66.4940
0.1810	66.5295
0.1809	66.5641
0.1809	66.5983
0.1808	66.6315
0.1807	66.6664
0.1807	66.7013
0.1806	66.7341
0.1805	66.7696
0.1805	66.7997
0.1804	66.8319
0.1803	66.8610
0.1803	66.8920
0.1802	66.9207
0.1801	66.9566
0.1800	66.9909
0.1799	67.0275
0.1798	67.0627
0.1797	67.0936
0.1796	67.1229
0.1795	67.1491
0.1793	67.1741
0.1792	67.1991
0.1791	67.2266
0.1789	67.2568
0.1788	67.2895
0.1786	67.3211
0.1785	67.3539
0.1783	67.3874
0.1782	67.4108
0.1781	67.4285
0.1780	67.4384
0.1778	67.4554
0.1776	67.4734
0.1774	67.5028
0.1772	67.5155
0.1771	67.5264
0.1769	67.5319
0.1767	67.5320
0.1766	67.5415
0.1765	67.5458
0.1763	67.5505
0.1761	67.5545
0.1760	67.5565
0.1758	67.5564
0.1757	67.5526
0.1755	67.5520
0.1754	67.5485
0.1752	67.5435
0.1751	67.5382
0.1750	67.5322
0.1749	67.5257
0.1747	67.5195
0.1746	67.5111
0.1745	67.5014
0.1744	67.4911
0.1742	67.4793
0.1741	67.4665
0.1740	67.4530
0.1738	67.4382
0.1737	67.4222
0.1734	67.3920
0.1733	67.3733
0.1731	67.3542
0.1730	67.3348
0.1729	67.3143
0.1727	67.2923
0.1726	67.2704
0.1724	67.2451
0.1723	67.2190
0.1721	67.1920
0.1720	67.1642
0.1719	67.1357
0.1717	67.1070
0.1716	67.0784
0.1714	67.0467
0.1713	67.0130
0.1711	66.9795
0.1710	66.9468
0.1708	66.9087
0.1707	66.8774
0.1705	66.8342
0.1704	66.7956
0.1702	66.7545
0.1701	66.7146
0.1699	66.6752
0.1698	66.6316
0.1696	66.5892
0.1695	66.5481
0.1694	66.5055
0.1692	66.4590
0.1691	66.4119
0.1689	66.3652
0.1687	66.3109
0.1686	66.2614
0.1684	66.2089
0.1683	66.1592
0.1681	66.1115
0.1680	66.0651
0.1679	66.0132
0.1677	65.9578
0.1675	65.9014
0.1674	65.8460
0.1672	65.7614
0.1670	65.7047
0.1669	65.6449
0.1667	65.5802
0.1665	65.5253
0.1663	65.4467
0.1662	65.3775
0.1660	65.3040
0.1658	65.2353
0.1656	65.1367
0.1654	65.0651
0.1652	64.9935
0.1651	64.9213
0.1649	64.8492
0.1646	64.7212
0.1644	64.6439
0.1643	64.5727
0.1641	64.4926
0.1639	64.4230
0.1638	64.3489
0.1636	64.2578
0.1634	64.1745
0.1633	64.1095
0.1632	64.0216
0.1631	63.9881
0.1631	63.9576
0.1630	63.9060
0.1629	63.8744
0.1629	63.8356
0.1628	63.7988
0.1627	63.7553
0.1626	63.6901
0.1624	63.6007
0.1622	63.4773
0.1621	63.3583
0.1619	63.2357
0.1617	63.1025
0.1615	62.9874
0.1614	62.8871
0.1612	62.8105
0.1611	62.7293
0.1609	62.6380
0.1607	62.5533
0.1606	62.4925
0.1604	62.4343
0.1603	62.3760
0.1602	62.3107
0.1599	62.1906
0.1597	62.1183
0.1596	62.0368
0.1592	61.8904
0.1590	61.8153
0.1589	61.7369
0.1586	61.6065
0.1584	61.5379
0.1582	61.4432
0.1580	61.3727
0.1579	61.3037
0.1577	61.2399
0.1576	61.1762
0.1574	61.1110
0.1572	61.0197
0.1569	60.9090
0.1568	60.8488
0.1566	60.7778
0.1564	60.7117
0.1563	60.6463
0.1561	60.5788
0.1559	60.5072
0.1558	60.4310
0.1556	60.3543
0.1555	60.2731
0.1553	60.1865
0.1551	60.0956
0.1550	60.0050
0.1547	59.8740
0.1546	59.7774
0.1544	59.7095
0.1543	59.6475
0.1541	59.5896
0.1540	59.5319
0.1539	59.4832
0.1537	59.4392
0.1536	59.3986
0.1535	59.3622
0.1533	59.3288
0.1532	59.2978
0.1531	59.2698
0.1530	59.2435
0.1529	59.2202
0.1528	59.1992
0.1527	59.1793
0.1526	59.1633
0.1525	59.1459
0.1525	59.1289
0.1524	59.1038
0.1522	59.0659
0.1521	59.0476
0.1520	59.0310
K2                                       ! EALPHA - FORCING CONSTITUENT NAME AGAIN
0.0060	219.1532
0.0060	216.2753
0.0060	213.4968
0.0061	211.2087
0.0061	209.0407
0.0061	207.2709
0.0062	205.5361
0.0062	203.6593
0.0063	202.0127
0.0063	200.0961
0.0064	198.7317
0.0064	197.5177
0.0064	196.3265
0.0065	195.0615
0.0065	193.8494
0.0066	192.6442
0.0066	191.3520
0.0067	190.1659
0.0068	188.7799
0.0069	187.5136
0.0069	186.0547
0.0070	184.8607
0.0071	183.6515
0.0072	182.5576
0.0073	181.5169
0.0074	180.4529
0.0075	179.3632
0.0076	178.2863
0.0077	177.3063
0.0078	176.3267
0.0079	175.3589
0.0080	174.4082
0.0081	173.4081
0.0082	172.3915
0.0084	171.3657
0.0085	170.3967
0.0087	169.5184
0.0088	168.5266
0.0090	167.5784
0.0092	166.7043
0.0093	165.8930
0.0095	165.1035
0.0096	164.4112
0.0098	163.6747
0.0099	163.0209
0.0101	162.4642
0.0102	161.8714
0.0104	161.4139
0.0105	161.0291
0.0105	160.6944
0.0106	160.3339
0.0107	159.9695
0.0108	159.6066
0.0109	159.2170
0.0109	158.8432
0.0110	158.4898
0.0111	158.1410
0.0111	157.8120
0.0113	157.4234
0.0113	157.0386
0.0115	156.4187
0.0116	156.0260
0.0117	155.6893
0.0118	155.3125
0.0118	154.9541
0.0119	154.6044
0.0120	154.2538
0.0121	153.9144
0.0122	153.5625
0.0123	153.2135
0.0124	152.9097
0.0125	152.5786
0.0125	152.3134
0.0126	152.0489
0.0126	151.7766
0.0127	151.5343
0.0127	151.2853
0.0128	151.0194
0.0128	150.7564
0.0129	150.5089
0.0129	150.2640
0.0129	150.0181
0.0129	149.7851
0.0130	149.5443
0.0130	149.3237
0.0130	149.0987
0.0130	148.8970
0.0130	148.7085
0.0130	148.5362
0.0130	148.3916
0.0130	148.2440
0.0130	148.0733
0.0130	147.9090
0.0130	147.7480
0.0130	147.5962
0.0130	147.4311
0.0130	147.2441
0.0130	147.0777
0.0129	146.9207
0.0129	146.7546
0.0129	146.6094
0.0128	146.4551
0.0127	146.3588
0.0127	146.1765
0.0127	146.0362
0.0126	145.9083
0.0125	145.7444
0.0125	145.6042
0.0124	145.4837
0.0123	145.3677
0.0122	145.2459
0.0121	145.1198
0.0120	145.0005
0.0119	144.8862
0.0118	144.7793
0.0117	144.6811
0.0116	144.5938
0.0115	144.4942
0.0114	144.4043
0.0113	144.3088
0.0112	144.2092
0.0111	144.1101
0.0109	144.0103
0.0108	143.9138
0.0107	143.8186
0.0106	143.7233
0.0104	143.6130
0.0102	143.4967
0.0101	143.3839
0.0099	143.2573
0.0097	143.1384
0.0095	143.0204
0.0093	142.8885
0.0091	142.7678
0.0089	142.6240
0.0087	142.4880
0.0084	142.3228
0.0082	142.1807
0.0079	142.0273
0.0076	141.8961
0.0074	141.7737
0.0071	141.6136
0.0068	141.4936
0.0066	141.3726
0.0064	141.2492
0.0061	141.1226
0.0059	140.9969
0.0057	140.8815
0.0054	140.7576
0.0052	140.6407
0.0049	140.5007
0.0047	140.3527
0.0044	140.1950
0.0041	140.0257
0.0038	139.8523
0.0035	139.6290
0.0032	139.4015
0.0029	139.1536
0.0026	138.8749
0.0024	138.5226
0.0021	138.0808
0.0019	137.5923
0.0016	136.9187
0.0013	135.9703
0.0010	134.5332
0.0007	132.0535
0.0005	126.9273
0.0002	107.2709
0.0002	2.1275
0.0004	334.8674
0.0008	328.8853
0.0011	326.1932
0.0014	324.6492
0.0017	323.8155
0.0020	323.0002
0.0024	322.4341
0.0027	321.9622
0.0032	321.4693
0.0037	321.1727
0.0040	320.9669
0.0043	320.7966
0.0047	320.6318
0.0050	320.4868
0.0054	320.3572
0.0058	320.2332
0.0063	320.0996
0.0068	319.9974
0.0074	319.9018
0.0080	319.8433
0.0085	319.8105
0.0091	319.7617
0.0095	319.6947
0.0098	319.6711
0.0102	319.6227
0.0106	319.5731
0.0109	319.5276
0.0112	319.4802
0.0115	319.4442
0.0117	319.4086
0.0120	319.3754
0.0122	319.3454
0.0125	319.3122
0.0128	319.2796
0.0130	319.2478
0.0134	319.2023
0.0137	319.1629
0.0141	319.0990
0.0145	319.0562
0.0147	319.0079
0.0151	318.9728
0.0154	318.9191
0.0157	318.8765
0.0160	318.8367
0.0163	318.7954
0.0166	318.7474
0.0169	318.6992
0.0172	318.6425
0.0174	318.6132
0.0177	318.5658
0.0180	318.5099
0.0183	318.4530
0.0186	318.3856
0.0189	318.3356
0.0191	318.2805
0.0194	318.2238
0.0196	318.1602
0.0199	318.0981
0.0201	318.0334
0.0204	317.9698
0.0206	317.8991
0.0209	317.8284
0.0211	317.7579
0.0213	317.6784
0.0215	317.6079
0.0217	317.5287
0.0219	317.4560
0.0220	317.3752
0.0222	317.3003
0.0225	317.2145
0.0227	317.1412
0.0230	317.0659
0.0232	316.9989
0.0235	316.9408
0.0237	316.8890
0.0240	316.8448
0.0242	316.8057
0.0245	316.7751
0.0248	316.7640
0.0252	316.7843
0.0256	316.8232
0.0260	316.8601
0.0264	316.8899
0.0268	316.9044
0.0271	316.8681
0.0273	316.8143
0.0275	316.7576
0.0277	316.6874
0.0280	316.6844
0.0286	316.7154
0.0289	316.7322
0.0291	316.7378
0.0294	316.7254
0.0295	316.6929
0.0297	316.6529
0.0299	316.5984
0.0301	316.5392
0.0302	316.4716
0.0304	316.3996
0.0305	316.3370
0.0307	316.2773
0.0308	316.2126
0.0309	316.1480
0.0310	316.0776
0.0311	316.0163
0.0312	315.9543
0.0312	315.8932
0.0313	315.8417
0.0314	315.7777
0.0314	315.7138
0.0315	315.6510
0.0315	315.5817
0.0316	315.5099
0.0317	315.4373
0.0317	315.3646
0.0317	315.2901
0.0318	315.1589
0.0319	315.0822
0.0319	315.0057
0.0319	314.9311
0.0319	314.8548
0.0320	314.7754
0.0320	314.7006
0.0320	314.6175
0.0320	314.5343
0.0320	314.4519
0.0320	314.3689
0.0320	314.2856
0.0320	314.2037
0.0320	314.1243
0.0320	314.0385
0.0320	313.9496
0.0320	313.8625
0.0320	313.7785
0.0319	313.6952
0.0320	313.6041
0.0319	313.4986
0.0319	313.4064
0.0319	313.3095
0.0318	313.2169
0.0318	313.1272
0.0317	313.0287
0.0317	312.9345
0.0316	312.8435
0.0316	312.7503
0.0315	312.6494
0.0315	312.5475
0.0314	312.4457
0.0313	312.3286
0.0312	312.2238
0.0312	312.1124
0.0311	312.0065
0.0310	311.9053
0.0309	311.8071
0.0308	311.6973
0.0308	311.5808
0.0307	311.4625
0.0306	311.3471
0.0304	311.1719
0.0303	311.0526
0.0302	310.9262
0.0300	310.7965
0.0299	310.6719
0.0298	310.5030
0.0296	310.3526
0.0295	310.1923
0.0293	310.0415
0.0291	309.8213
0.0289	309.6600
0.0288	309.4969
0.0286	309.3302
0.0284	309.1602
0.0281	308.8518
0.0279	308.6602
0.0277	308.4788
0.0275	308.2676
0.0273	308.0766
0.0271	307.8609
0.0268	307.5885
0.0265	307.3251
0.0263	307.1360
0.0260	306.8540
0.0259	306.7366
0.0258	306.6476
0.0257	306.5154
0.0256	306.4287
0.0254	306.3173
0.0253	306.2064
0.0252	306.0694
0.0249	305.8460
0.0246	305.5199
0.0242	305.0714
0.0238	304.6223
0.0233	304.1567
0.0228	303.6412
0.0224	303.1632
0.0220	302.7260
0.0217	302.3879
0.0215	302.0660
0.0212	301.7050
0.0209	301.3537
0.0207	301.0930
0.0205	300.8348
0.0204	300.5798
0.0201	300.2886
0.0197	299.7374
0.0195	299.3981
0.0192	298.9984
0.0187	298.2430
0.0184	297.8480
0.0182	297.4246
0.0177	296.6792
0.0174	296.2554
0.0170	295.6784
0.0168	295.2323
0.0165	294.7821
0.0162	294.3550
0.0160	293.8945
0.0157	293.4043
0.0153	292.6815
0.0148	291.7607
0.0146	291.2245
0.0142	290.5768
0.0139	289.9409
0.0137	289.2825
0.0133	288.5692
0.0130	287.7752
0.0127	286.8894
0.0123	285.9549
0.0119	284.9230
0.0115	283.7670
0.0111	282.4700
0.0107	281.0776
0.0101	278.6797
0.0097	276.5417
0.0094	274.8236
0.0091	273.0786
0.0088	271.2599
0.0085	269.2208
0.0082	267.2925
0.0080	265.3294
0.0077	263.3048
0.0075	261.2758
0.0073	259.1940
0.0072	257.0669
0.0070	254.9347
0.0068	252.7175
0.0067	250.4725
0.0066	248.1807
0.0065	245.6162
0.0064	243.0713
0.0063	240.1925
0.0062	237.2954
0.0061	233.5369
0.0060	228.0889
0.0060	225.2262
0.0060	222.1088
M2                                       ! EALPHA - FORCING CONSTITUENT NAME AGAIN
0.0808	276.2273
0.0789	275.8559
0.0771	275.4766
0.0756	275.1968
0.0741	274.9595
0.0729	274.8016
0.0717	274.6617
0.0705	274.5000
0.0694	274.3748
0.0681	274.2556
0.0673	274.1871
0.0665	274.1377
0.0657	274.0895
0.0649	274.0336
0.0640	273.9676
0.0632	273.8845
0.0623	273.7955
0.0615	273.7054
0.0604	273.6021
0.0595	273.4991
0.0584	273.3672
0.0575	273.2504
0.0565	273.1231
0.0556	272.9945
0.0547	272.8604
0.0538	272.7054
0.0529	272.5325
0.0519	272.3441
0.0510	272.1613
0.0501	271.9633
0.0492	271.7495
0.0483	271.5171
0.0473	271.2493
0.0462	270.9163
0.0451	270.5175
0.0440	270.0286
0.0430	269.5388
0.0418	268.9139
0.0405	268.3199
0.0394	267.7600
0.0383	267.2171
0.0372	266.6249
0.0362	266.0423
0.0351	265.2815
0.0342	264.5121
0.0334	263.6712
0.0325	262.6726
0.0319	261.8774
0.0314	261.4224
0.0310	261.0852
0.0306	260.7937
0.0301	260.5062
0.0296	260.2516
0.0291	259.9889
0.0287	259.7217
0.0282	259.4455
0.0277	259.1437
0.0274	259.0825
0.0267	258.4803
0.0262	258.0796
0.0253	257.4143
0.0248	256.9832
0.0243	256.6099
0.0238	256.1943
0.0233	255.7950
0.0228	255.4011
0.0224	254.9769
0.0219	254.5549
0.0214	254.1107
0.0210	253.6665
0.0206	253.3021
0.0202	252.9576
0.0199	252.7480
0.0197	252.6799
0.0195	252.7421
0.0193	252.8771
0.0191	253.0858
0.0189	253.3223
0.0187	253.6434
0.0186	254.0366
0.0185	254.5241
0.0184	255.1219
0.0184	255.7306
0.0184	256.4064
0.0183	257.0845
0.0184	257.8550
0.0184	258.6047
0.0185	259.3365
0.0185	260.0436
0.0186	260.6536
0.0187	261.3100
0.0188	262.1127
0.0190	262.9247
0.0192	263.7407
0.0193	264.5196
0.0196	265.4139
0.0199	266.4763
0.0202	267.4633
0.0205	268.4353
0.0209	269.4898
0.0213	270.4316
0.0218	271.4535
0.0226	272.7056
0.0228	273.3358
0.0234	274.2926
0.0239	275.1696
0.0247	276.2997
0.0255	277.2647
0.0262	278.0908
0.0269	278.8825
0.0277	279.7069
0.0286	280.5507
0.0295	281.3370
0.0304	282.0742
0.0313	282.7524
0.0322	283.3651
0.0330	283.8940
0.0340	284.4800
0.0349	284.9918
0.0359	285.5156
0.0369	286.0378
0.0380	286.5343
0.0391	287.0135
0.0402	287.4572
0.0413	287.8744
0.0424	288.2724
0.0436	288.7083
0.0450	289.1442
0.0464	289.5423
0.0480	289.9609
0.0495	290.3279
0.0510	290.6679
0.0526	291.0202
0.0542	291.3191
0.0560	291.6493
0.0578	291.9394
0.0600	292.2678
0.0620	292.5292
0.0643	292.7886
0.0664	292.9938
0.0684	293.1614
0.0710	293.3537
0.0729	293.4763
0.0748	293.5861
0.0766	293.6858
0.0786	293.7777
0.0805	293.8611
0.0823	293.9278
0.0841	293.9906
0.0859	294.0431
0.0881	294.0963
0.0902	294.1430
0.0924	294.1854
0.0948	294.2216
0.0969	294.2508
0.0994	294.2751
0.1017	294.2921
0.1040	294.3053
0.1063	294.3165
0.1084	294.3295
0.1105	294.3386
0.1124	294.3423
0.1146	294.3413
0.1168	294.3385
0.1190	294.3350
0.1212	294.3319
0.1233	294.3277
0.1255	294.3216
0.1277	294.3139
0.1300	294.3060
0.1324	294.2971
0.1349	294.2859
0.1374	294.2728
0.1395	294.2628
0.1422	294.2527
0.1447	294.2502
0.1474	294.2527
0.1511	294.2699
0.1543	294.2848
0.1571	294.2904
0.1594	294.2801
0.1617	294.2675
0.1641	294.2603
0.1667	294.2596
0.1697	294.2669
0.1735	294.2881
0.1772	294.3176
0.1816	294.3584
0.1856	294.3968
0.1892	294.4336
0.1939	294.4638
0.1964	294.4633
0.1989	294.4636
0.2014	294.4564
0.2039	294.4450
0.2062	294.4321
0.2084	294.4169
0.2101	294.4046
0.2118	294.3914
0.2136	294.3782
0.2153	294.3655
0.2171	294.3505
0.2189	294.3353
0.2206	294.3197
0.2230	294.2970
0.2250	294.2769
0.2282	294.2440
0.2303	294.2218
0.2322	294.1989
0.2343	294.1783
0.2367	294.1510
0.2386	294.1298
0.2404	294.1109
0.2423	294.0918
0.2444	294.0700
0.2463	294.0487
0.2481	294.0264
0.2498	294.0117
0.2515	293.9917
0.2536	293.9689
0.2555	293.9465
0.2578	293.9207
0.2594	293.9018
0.2610	293.8812
0.2628	293.8591
0.2646	293.8339
0.2663	293.8092
0.2680	293.7831
0.2696	293.7571
0.2712	293.7270
0.2728	293.6966
0.2742	293.6649
0.2758	293.6282
0.2770	293.5943
0.2784	293.5552
0.2796	293.5189
0.2809	293.4781
0.2821	293.4404
0.2836	293.3998
0.2852	293.3683
0.2869	293.3381
0.2887	293.3144
0.2903	293.2958
0.2918	293.2818
0.2933	293.2737
0.2948	293.2694
0.2964	293.2732
0.2984	293.2960
0.3006	293.3451
0.3030	293.4115
0.3055	293.4790
0.3080	293.5425
0.3103	293.5947
0.3120	293.5999
0.3132	293.5865
0.3140	293.5646
0.3155	293.5482
0.3173	293.5860
0.3202	293.6738
0.3219	293.7259
0.3234	293.7694
0.3246	293.7960
0.3254	293.8060
0.3265	293.8068
0.3274	293.7978
0.3282	293.7863
0.3291	293.7720
0.3299	293.7556
0.3305	293.7412
0.3310	293.7272
0.3316	293.7108
0.3321	293.6937
0.3325	293.6744
0.3329	293.6571
0.3332	293.6393
0.3335	293.6217
0.3337	293.6068
0.3339	293.5885
0.3341	293.5699
0.3343	293.5516
0.3344	293.5308
0.3345	293.5093
0.3347	293.4877
0.3347	293.4660
0.3348	293.4439
0.3348	293.4053
0.3348	293.3830
0.3348	293.3607
0.3347	293.3391
0.3346	293.3173
0.3345	293.2949
0.3344	293.2739
0.3342	293.2507
0.3340	293.2277
0.3338	293.2052
0.3336	293.1826
0.3333	293.1601
0.3330	293.1379
0.3327	293.1166
0.3324	293.0938
0.3320	293.0704
0.3316	293.0477
0.3312	293.0259
0.3305	293.0071
0.3303	292.9807
0.3297	292.9533
0.3292	292.9296
0.3286	292.9047
0.3281	292.8809
0.3275	292.8580
0.3268	292.8326
0.3262	292.8084
0.3256	292.7850
0.3249	292.7609
0.3242	292.7349
0.3234	292.7085
0.3226	292.6818
0.3218	292.6513
0.3209	292.6245
0.3201	292.5961
0.3192	292.5693
0.3184	292.5438
0.3176	292.5190
0.3167	292.4915
0.3157	292.4623
0.3147	292.4328
0.3137	292.4039
0.3122	292.3599
0.3112	292.3296
0.3100	292.2975
0.3086	292.2696
0.3078	292.2334
0.3062	292.1908
0.3049	292.1529
0.3034	292.1127
0.3021	292.0744
0.3000	292.0184
0.2986	291.9776
0.2971	291.9362
0.2955	291.8941
0.2939	291.8510
0.2911	291.7721
0.2894	291.7225
0.2877	291.6745
0.2859	291.6169
0.2842	291.5633
0.2824	291.4991
0.2801	291.4171
0.2780	291.3312
0.2763	291.2759
0.2739	291.1816
0.2729	291.1391
0.2721	291.1140
0.2707	291.0854
0.2699	291.0638
0.2688	291.0335
0.2678	291.0011
0.2667	290.9622
0.2649	290.8951
0.2623	290.7921
0.2588	290.6540
0.2552	290.5098
0.2516	290.3655
0.2476	290.2087
0.2441	290.0647
0.2412	289.9378
0.2390	289.8484
0.2368	289.7776
0.2343	289.7027
0.2320	289.6313
0.2303	289.5830
0.2287	289.5344
0.2271	289.4901
0.2252	289.4398
0.2218	289.3406
0.2197	289.2817
0.2174	289.2098
0.2130	289.0766
0.2107	289.0115
0.2083	288.9416
0.2042	288.8149
0.2019	288.7339
0.1988	288.6220
0.1965	288.5417
0.1942	288.4648
0.1920	288.3947
0.1898	288.3076
0.1875	288.2115
0.1841	288.0696
0.1800	287.8886
0.1777	287.7824
0.1750	287.6496
0.1724	287.5192
0.1699	287.3817
0.1672	287.2265
0.1643	287.0508
0.1613	286.8531
0.1582	286.6441
0.1549	286.4131
0.1515	286.1560
0.1479	285.8717
0.1442	285.5697
0.1389	285.0196
0.1347	284.5284
0.1316	284.1554
0.1287	283.7969
0.1259	283.4469
0.1229	283.0784
0.1203	282.7499
0.1178	282.4294
0.1154	282.1130
0.1131	281.8101
0.1109	281.5121
0.1088	281.2174
0.1067	280.9294
0.1047	280.6378
0.1028	280.3502
0.1009	280.0586
0.0989	279.7345
0.0970	279.4093
0.0950	279.0223
0.0930	278.6080
0.0905	278.0499
0.0868	277.3037
0.0849	276.9486
0.0828	276.5771
N2                                       ! EALPHA - FORCING CONSTITUENT NAME AGAIN
0.0193	267.9465
0.0189	267.4646
0.0186	266.9759
0.0184	266.5957
0.0181	266.2507
0.0179	265.9918
0.0177	265.7395
0.0175	265.4464
0.0173	265.1875
0.0171	264.8912
0.0170	264.6832
0.0169	264.5005
0.0168	264.3160
0.0166	264.1127
0.0165	263.9052
0.0164	263.6823
0.0162	263.4442
0.0161	263.2174
0.0160	262.9521
0.0158	262.6987
0.0156	262.3901
0.0155	262.1251
0.0154	261.8454
0.0152	261.5786
0.0151	261.3125
0.0150	261.0248
0.0148	260.7157
0.0147	260.3957
0.0146	260.0931
0.0144	259.7765
0.0143	259.4486
0.0142	259.1071
0.0141	258.7284
0.0139	258.2999
0.0138	257.8218
0.0137	257.2990
0.0135	256.8000
0.0134	256.1985
0.0132	255.6354
0.0131	255.1125
0.0130	254.6192
0.0128	254.1063
0.0127	253.6241
0.0126	253.0355
0.0125	252.4666
0.0124	251.8837
0.0124	251.2189
0.0123	250.7014
0.0123	250.3839
0.0123	250.1400
0.0123	249.9166
0.0122	249.6953
0.0122	249.4931
0.0122	249.2816
0.0121	249.0731
0.0121	248.8648
0.0121	248.6467
0.0120	248.5141
0.0120	248.1808
0.0119	247.9146
0.0119	247.4794
0.0118	247.2012
0.0118	246.9620
0.0117	246.6951
0.0117	246.4406
0.0117	246.1913
0.0116	245.9313
0.0116	245.6760
0.0116	245.4093
0.0116	245.1434
0.0115	244.9169
0.0115	244.6832
0.0115	244.5136
0.0115	244.3851
0.0116	244.2919
0.0116	244.2301
0.0116	244.1840
0.0116	244.1365
0.0116	244.1116
0.0117	244.1108
0.0117	244.1347
0.0117	244.1877
0.0118	244.2477
0.0118	244.3197
0.0119	244.3993
0.0119	244.5005
0.0120	244.6077
0.0120	244.7161
0.0121	244.8263
0.0121	244.9239
0.0122	245.0343
0.0122	245.1765
0.0123	245.3273
0.0124	245.4842
0.0124	245.6385
0.0125	245.8252
0.0126	246.0592
0.0127	246.2887
0.0128	246.5264
0.0129	246.7974
0.0130	247.0518
0.0131	247.3422
0.0132	247.7866
0.0133	247.9220
0.0134	248.2398
0.0135	248.5467
0.0137	248.9646
0.0139	249.3435
0.0140	249.6860
0.0141	250.0320
0.0143	250.4120
0.0145	250.8247
0.0146	251.2311
0.0148	251.6326
0.0150	252.0208
0.0151	252.3892
0.0153	252.7201
0.0154	253.1027
0.0156	253.4515
0.0158	253.8230
0.0159	254.2088
0.0161	254.5912
0.0163	254.9749
0.0165	255.3465
0.0167	255.7085
0.0169	256.0671
0.0171	256.4759
0.0173	256.9034
0.0176	257.3132
0.0178	257.7631
0.0181	258.1772
0.0183	258.5772
0.0186	259.0129
0.0189	259.3975
0.0192	259.8439
0.0195	260.2571
0.0199	260.7554
0.0202	261.1845
0.0206	261.6434
0.0210	262.0407
0.0213	262.3910
0.0218	262.8284
0.0221	263.1286
0.0224	263.4157
0.0228	263.6913
0.0231	263.9652
0.0235	264.2350
0.0238	264.4679
0.0241	264.7038
0.0244	264.9251
0.0248	265.1731
0.0252	265.4140
0.0256	265.6638
0.0260	265.9101
0.0264	266.1339
0.0268	266.3753
0.0272	266.5918
0.0277	266.8012
0.0281	267.0036
0.0284	267.1950
0.0288	267.3820
0.0292	267.5429
0.0296	267.7179
0.0300	267.8934
0.0304	268.0655
0.0308	268.2345
0.0311	268.3950
0.0315	268.5601
0.0320	268.7271
0.0324	268.9002
0.0328	269.0722
0.0333	269.2508
0.0337	269.4312
0.0341	269.5747
0.0346	269.7592
0.0351	269.9368
0.0356	270.1316
0.0363	270.4065
0.0369	270.6446
0.0374	270.8426
0.0378	270.9851
0.0383	271.1292
0.0387	271.2852
0.0392	271.4573
0.0398	271.6600
0.0405	271.9230
0.0412	272.1812
0.0420	272.4950
0.0427	272.7682
0.0434	273.0202
0.0443	273.3234
0.0448	273.4816
0.0452	273.6080
0.0457	273.7440
0.0462	273.8738
0.0466	273.9907
0.0470	274.0984
0.0473	274.1793
0.0476	274.2626
0.0480	274.3468
0.0483	274.4294
0.0486	274.5168
0.0489	274.5993
0.0492	274.6786
0.0497	274.7892
0.0501	274.8814
0.0506	275.0194
0.0510	275.1098
0.0513	275.1958
0.0517	275.2807
0.0521	275.3834
0.0525	275.4640
0.0528	275.5393
0.0531	275.6162
0.0535	275.7030
0.0538	275.7826
0.0541	275.8575
0.0544	275.9194
0.0547	275.9865
0.0551	276.0635
0.0554	276.1373
0.0558	276.2202
0.0561	276.2763
0.0564	276.3306
0.0567	276.3913
0.0570	276.4461
0.0573	276.4988
0.0576	276.5447
0.0578	276.5881
0.0581	276.6272
0.0584	276.6634
0.0586	276.6919
0.0589	276.7185
0.0591	276.7370
0.0594	276.7531
0.0596	276.7662
0.0598	276.7787
0.0600	276.7916
0.0603	276.8165
0.0605	276.8509
0.0608	276.8950
0.0611	276.9490
0.0614	277.0031
0.0617	277.0621
0.0619	277.1282
0.0621	277.1990
0.0624	277.2849
0.0627	277.4053
0.0631	277.5589
0.0635	277.7339
0.0639	277.9149
0.0643	278.0862
0.0646	278.2424
0.0649	278.3260
0.0651	278.3782
0.0652	278.4101
0.0655	278.4864